%chk=C:\Users\User\Desktop\LiMn2O4Cal (1 0 0).chk
%chk=D:\Users\User\Desktop\LiMn2O4Cal (1 0 0).chk
# pbepbe/3-21g/auto

Title Card Required

0 1
 Li                 0.00000000    0.00000000    7.24772143
 Li                 2.88465000    2.88465000    3.16817142
 O                  0.00000000    1.59590377    6.11922878
 O                  4.48055377    2.88465000    4.29666407
 O                  4.17339623    0.00000000    0.21711406
 O                  2.88465000    4.48055377    2.03967877
 Mn                 2.88465000    4.32697500    0.10855703
 Mn                 4.32697500    0.00000000    2.14842827
 Mn                 4.32697500    2.88465000    6.22778581
 Mn                 1.44232500    0.00000000    2.14842827
 O                  0.00000000    4.48055377    2.25698530
 O                  2.88465000    1.59590377    6.33634284
 O                  1.28874623    0.00000000    4.07955001
 O                  1.59590377    2.88465000    0.00000000
 O                  2.88465000    4.17339623    6.33634284
 Li                 2.88465000    0.00000000    5.20804267
 Li                 0.00000000    2.88465000    1.12849265
 Mn                 0.00000000    1.44232500    4.18810704
 O                  0.00000000    1.28874623    2.25698530
 O                  1.59590377    0.00000000    0.21711406
 O                  0.00000000    4.17339623    6.11922878
 O                  2.88465000    1.28874623    2.03967877
 O                  1.28874623    2.88465000    4.29666407
 Mn                 2.88465000    1.44232500    0.10855703
 Mn                 0.00000000    4.32697500    4.18810704
 Mn                 1.44232500    2.88465000    6.22778581
 O                  4.17339623    2.88465000    0.00000000
 O                  4.48055377    0.00000000    4.07955001
 Tv                 5.76930000    0.00000000    0.00000000
 Tv                 0.00000000    5.76930000    0.00000000
 Tv                 0.00000000    0.00000000   19.24770000
 
